/*--------------------------------*- C++ -*----------------------------------*\
| =========                 |                                                 |
| \\      /  F ield         | OpenFOAM: The Open Source CFD Toolbox           |
|  \\    /   O peration     | Version:  v2206                                 |
|   \\  /    A nd           | Website:  www.openfoam.com                      |
|    \\/     M anipulation  |                                                 |
\*---------------------------------------------------------------------------*/
FoamFile
{
    version     2.0;
    format      ascii;
    class       volScalarField;
    object      rho;
}
// * * * * * * * * * * * * * * * * * * * * * * * * * * * * * * * * * * * * * //

dimensions      [1 -3 0 0 0 0 0];

internalField   uniform 1.225;

boundaryField
{
    Inlet
    {
        type            fixedValue;
        value           uniform 1.225;
    }

    Outlet
    {
        type            zeroGradient;
    }

    symmetric
    {
        type            symmetryPlane;
    }

    far_field
    {
        type            zeroGradient;
    }

    wall
    {
        type            zeroGradient;
    }

    defaultFaces
    {
        type            empty;
    }
}

// ************************************************************************* //