/*--------------------------------*- C++ -*----------------------------------*\
| =========                 |                                                 |
| \\      /  F ield         | OpenFOAM: The Open Source CFD Toolbox           |
|  \\    /   O peration     | Version:  v2206                                 |
|   \\  /    A nd           | Website:  www.openfoam.com                      |
|    \\/     M anipulation  |                                                 |
\*---------------------------------------------------------------------------*/
FoamFile
{
    version     2.0;
    format      ascii;
    class       volVectorField;
    object      U;
}
// * * * * * * * * * * * * * * * * * * * * * * * * * * * * * * * * * * * * * //

dimensions      [0 1 -1 0 0 0 0];

internalField   uniform (400 0 0);

boundaryField
{
    Inlet
    {
        type            fixedValue;
        value           uniform (400 0 0);
    }

    Outlet
    {
        type            zeroGradient;
    }

    symmetric
    {
        type            symmetryPlane;
    }

    far_field
    {
        type            zeroGradient;
    }

    wall
    {
        type            noSlip;
    }

    defaultFaces
    {
        type            empty;
    }
}


// ************************************************************************* //
